LTspice 24.0.9 for Windows
Circuit: * C:\Users\eugene.dann\Documents\Development\circuit_development\circuit_sims\AM Circuits\Base Injected\Test AM curcuit\BaseInjectedAM.asc
Start Time: Thu May 15 11:14:31 2025
Warning: Multiple definitions of model "2scr375p" Type: BJT
Warning: Multiple definitions of model "bc857b" Type: BJT
Warning: Multiple definitions of model "bc847c" Type: BJT
Warning: Multiple definitions of model "bc847b" Type: BJT
solver = Normal
Maximum thread count: 20
tnom = 27
temp = 27
method = modified trap
Direct Newton iteration for .op point succeeded.
Total elapsed time: 4.506 seconds.

